82

O       9.88932368       1.91117250       9.55168319 
O       4.71845054       0.00000000       9.55168319 
Ti       2.82550372       0.00000000      10.30464003 
Ti       7.99637686       1.91117250      10.30464003 
Ti       0.59325512       1.91117250      11.19256082 
Ti       5.76412826       0.00000000      11.19256082 
O       0.93255691       0.00000000      11.05759686 
O       6.10343004       1.91117250      11.05759686 
O       9.04205458       1.91117250      11.94551766 
O       3.87118144       0.00000000      11.94551766 
O       7.65707507       0.00000000      10.43960399 
O       2.48620193       1.91117250      10.43960399 
O       0.88431635       1.89503822      13.19692588 
O       6.07980368       0.00645851      13.14042894 
Ti       4.16527645      -0.05116953      14.02631686 
Ti       9.48652410       1.89462912      13.96573098 
Ti       1.87222019       1.88326341      15.01724873 
Ti       6.97170500       0.01635197      14.69564555 
O       2.35284860      -0.03566202      14.87879492 
O       7.44860353       1.88980965      15.00120259 
O       0.15284917       1.92381283      15.56413304 
O       5.31756975      -0.03324703      15.48955649 
O       8.95132079       0.03399572      14.06277118 
O       3.79003938       1.87319396      13.95815420 
O       9.88932368       5.73351750       9.55168319 
O       4.71845054       3.82234500       9.55168319 
Ti       2.82550372       3.82234500      10.30464003 
Ti       7.99637686       5.73351750      10.30464003 
Ti       0.59325512       5.73351750      11.19256082 
Ti       5.76412826       3.82234500      11.19256082 
O       0.93255691       3.82234500      11.05759686 
O       6.10343004       5.73351750      11.05759686 
O       9.04205458       5.73351750      11.94551766 
O       3.87118144       3.82234500      11.94551766 
O       7.65707507       3.82234500      10.43960399 
O       2.48620193       5.73351750      10.43960399 
O       0.85056980       5.79258994      13.21836786 
O       6.02282061       3.76264535      13.21871042 
Ti       4.07668782       3.69572876      13.83957311 
Ti       9.24626520       5.86027411      13.84055509 
Ti       1.95254809       5.82638453      14.74038238 
Ti       7.12319345       3.72806659      14.74309684 
O       2.32353922       3.83141917      14.65668341 
O       7.49420689       5.72463867      14.65731123 
O      -0.11409710       5.75480322      15.59399112 
O       5.05745579       3.80547072      15.59360456 
O       8.85755927       3.75925868      13.98433520 
O       3.68443513       5.79584046      13.97729224 
O       9.88932368       9.55586250       9.55168319 
O       4.71845054       7.64469000       9.55168319 
Ti       2.82550372       7.64469000      10.30464003 
Ti       7.99637686       9.55586250      10.30464003 
Ti       0.59325512       9.55586250      11.19256082 
Ti       5.76412826       7.64469000      11.19256082 
O       0.93255691       7.64469000      11.05759686 
O       6.10343004       9.55586250      11.05759686 
O       9.04205458       9.55586250      11.94551766 
O       3.87118144       7.64469000      11.94551766 
O       7.65707507       7.64469000      10.43960399 
O       2.48620193       9.55586250      10.43960399 
O       0.90896965       9.54713467      13.14059038 
O       6.05486165       7.66239067      13.19634206 
Ti       4.31389334       7.66068343      13.96452869 
Ti       9.33661438       9.60610391      14.02620726 
Ti       1.80101339       9.53773128      14.69591834 
Ti       7.04115776       7.67226803      15.01612729 
O       2.27995371       7.66541285      14.99996724 
O       7.52383484       9.59106449      14.87907510 
O       0.14716231       9.58593763      15.48987624 
O       5.32137006       7.62698083      15.56276712 
O       8.95986410       7.68293706      13.95754227 
O       3.78036651       9.52162872      14.06199074 
V       3.73579382       3.74820611      16.84256591
O       2.66762656       5.32548289      16.71444035 
O       2.81830530       2.27500203      16.68554915 
O       4.41491031       3.80041932      18.27584510 
V       8.90690909       5.81239097      16.84385551 
O       9.58712834       5.76127083      18.27675136 
O       7.83911373       4.23461880      16.71784218 
O       7.98684290       7.28394596      16.68556898
H       7.88991560       3.57260948      17.43329731
H       2.71934238       5.99210879      17.42550185 
VEC1      10.34174628       0.00000000       0.00000000 
VEC2      -0.00000000      11.46700000       0.00000000 
VEC3       0.00000000       0.00000000      23.49720080 
