150

O       8.20376669       1.87693442       6.07837911 
O       3.05887124      -0.08050196       6.08291551 
Ti       1.44147427      -0.00827609       6.97537517 
Ti       6.59900863       1.88206806       6.98102194 
Ti       9.39598284       1.89468029       7.49750825 
Ti       4.24161429      -0.04413729       7.50310237 
O       9.79745993      -0.02413643       7.50240590 
O       4.61401153       1.86270649       7.49393055 
O       7.55137986       1.89576888       8.48377925 
O       2.39052095       0.01305948       8.47777237 
O       6.09099645      -0.06115614       6.76969902 
O       0.92255537       1.88688045       6.75016945 
O       9.80061899       1.88814118       9.58056367 
O       4.63835781      15.22604218       9.57840386 
Ti       2.87121996      15.28120877      10.48310953 
Ti       8.03752660       1.88440899      10.49481829 
Ti       0.54571910       1.91199336      11.11144925 
Ti       5.72356217      -0.03322987      11.11729984 
O       0.95514438      15.28069127      11.09052224 
O       6.12561291       1.87612672      11.07992878 
O       9.12597222       1.88357921      12.02104217 
O       3.94808372      15.24590518      12.01773619 
O       7.62705815      -0.03231344      10.50146768 
O       2.47097518       1.88941364      10.52836266 
O       1.03434403       1.89071493      13.12223068 
O       6.20534081      -0.01717727      13.12660622 
Ti       4.37131249      -0.00402754      14.11027800 
Ti       9.54393707       1.88748021      14.10848361 
Ti       1.98838604       1.88928221      14.63158862 
Ti       7.15941643      -0.01336442      14.64279182 
O       2.51535609      -0.01827711      14.84821110 
O       7.68391583       1.87888939      14.86799425 
O       0.38620680       1.88236674      15.53075997 
O       5.54550375      -0.01097914      15.53396434 
O       9.13833992      -0.01682788      14.09072158 
O       3.98431940       1.88048459      14.09736931 
O       8.20415080       5.71240338       6.07652727 
O       3.05071675       3.80132158       6.07995792 
Ti       1.43837491       3.79935411       6.97614074 
Ti       6.60078304       5.71139062       6.97930686 
Ti       9.39792317       5.70588652       7.49680358 
Ti       4.23191665       3.79726653       7.50196513 
O       9.79283317       3.79800457       7.49413251 
O       4.61684810       5.72836667       7.50288139 
O       7.55220316       5.71375447       8.48218331 
O       2.38592580       3.80045522       8.48394700 
O       6.08489878       3.79688459       6.77098631 
O       0.92272223       5.70811114       6.74531957 
O       9.79952750       5.70719231       9.57604375 
O       4.63718883       3.79384181       9.58298842 
Ti       2.88620112       3.80480989      10.49228796 
Ti       8.03322350       5.69784593      10.48754127 
Ti       0.55064341       5.70184508      11.10566099 
Ti       5.72809152       3.80157256      11.12234342 
O       0.96444452       3.79806634      11.06594177 
O       6.12697434       5.70607060      11.07925597 
O       9.11813974       5.70072692      12.01482609 
O       3.96212680       3.80214071      12.02820076 
O       7.63308585       3.79266468      10.52601043 
O       2.47805771       5.71875867      10.53317677 
O       1.01078689       5.62796352      13.10147189 
O       6.21107174       3.77635259      13.12732984 
Ti       4.37653759       3.77138064      14.11636962 
Ti       9.51918369       5.67633054      14.08260326 
Ti       1.96331497       5.69438272      14.60867999 
Ti       7.16220935       3.77915231      14.64145965 
O       2.52040943       3.78605217      14.85036945 
O       7.66781698       5.67207370      14.87028148 
O       0.37058197       5.69789923      15.50265005 
O       5.55110679       3.77602277      15.53824340 
O       9.14079297       3.78097680      14.09826234 
O       3.99180443       5.69733805      14.11686034 
O       8.25161077       9.49173350       6.08147858 
O       3.07526092       7.66010968       6.09825374 
Ti       1.45574539       7.60222272       6.95663214 
Ti       6.62855756       9.54198094       6.92980648 
Ti       9.41833182       9.50152331       7.52987029 
Ti       4.25706902       7.63045658       7.54750062 
O       9.80026047       7.61723926       7.49955031 
O       4.64402843       9.62459223       7.50977068 
O       7.53383975       9.60454315       8.47313302 
O       2.37511385       7.57551402       8.48065825 
O       6.08859153       7.65140048       6.77317997 
O       0.93671558       9.53580987       6.78217042 
O       9.80621404       9.50732660       9.58566686 
O       4.63693506       7.64537005       9.60789713 
Ti       2.91859792       7.61703705      10.41964097 
Ti       8.05848673       9.52367964      10.44664747 
Ti       0.57347538       9.44826553      11.18245417 
Ti       5.80476757       7.63408197      11.29687350 
O       0.95025700       7.60533367      11.10530692 
O       6.17808767       9.54514245      11.19561738 
O       9.13371799       9.51826579      12.01126042 
O       3.90669489       7.72038301      12.03547105 
O       7.62683323       7.62729262      10.52708345 
O       2.40128422       9.52215234      10.39705522 
O       1.03689113       9.55656969      13.15612981 
O       6.13329695       7.48373606      13.18360367 
Ti       4.32508048       7.54048600      13.92651180 
Ti       9.49528102       9.50323349      13.98514382 
Ti       1.90359945       9.49895989      14.82956667 
Ti       7.31840016       7.61128428      14.97422066 
O       2.44239258       7.59409824      14.68436129 
O       7.57957484       9.53451584      14.51814520 
O       0.26053157       9.47503588      15.53113275 
O       5.37484534       7.83678789      15.57865035 
O       9.10723231       7.59517635      14.09258745 
O       4.05251004       9.56762612      14.22402025 
O       8.24605954      13.37995948       6.06253263 
O       2.89244548      11.43828971       5.82801476 
Ti       1.39408702      11.44335897       6.96643148 
Ti       6.62007291      13.33070875       6.92672006 
Ti       9.40602091      13.37203852       7.49966126 
Ti       4.22924669      11.43605764       7.03029521 
O       9.83437248      11.44146316       7.51226758 
O       4.64399585      13.25427095       7.50099647 
O       7.53912398      13.24618550       8.45709408 
O       2.64555740      11.44994189       8.35798151 
O       6.09526898      11.43661517       6.43787701 
O       0.93210986      13.34627769       6.77477551 
O       9.79680948      13.37321837       9.57261248 
O       4.13108994      11.44190303      11.35382545 
Ti       2.63456083      11.45006765      10.30541914 
Ti       8.03759918      13.36203883      10.46349290 
Ti       0.52675482      13.41919026      11.12180118 
Ti       5.96275914      11.44884663      11.55709856 
O       0.94110707      11.44993816      11.08388820 
O       6.15073119      13.33943475      11.09287470 
O       9.10929250      13.36825730      12.01825472 
O       7.66656213      11.43778628      10.57186254 
O       2.39892638      13.37221067      10.40656858 
O       1.02105626      13.37329262      13.10362569 
O       6.09672234      11.54198115      13.36180923 
Ti       4.34561811      11.50110976      14.28503532 
Ti       9.51646522      13.39014887      14.09205918 
Ti       1.95956837      13.37287911      14.62501027 
Ti       7.41964820      11.41814700      15.07554103 
O       2.44713627      11.47273441      14.82537899 
O       7.68049848      13.38042702      14.90819191 
O       0.36422698      13.39315312      15.51431642 
O       5.34644905      11.24279649      15.79624839 
O       9.12211706      11.45716536      14.13501378 
O       3.97792732      13.34966218      14.11137828 
V       4.68404811       9.45758224      16.24035656 
V       7.48962234       9.44409220      17.67588852 
O       7.85795576       7.97555996      16.69340811 
O       7.88839613      10.98635773      16.76861929 
O       3.10364470       9.40743613      16.69388272 
O       8.09196151       9.38227101      19.14367766 
O       5.71062500       9.42105960      17.72088124 
VEC1      10.34174630       0.00000000       0.00000000 
VEC2      -0.00000000      15.28938000       0.00000000 
