153

O       8.18963069       1.88427943       6.07873173 
O       3.02956193      -0.02526757       6.07057294 
Ti       1.41424666      -0.02594171       6.95987502 
Ti       6.57899887       1.88879819       6.97273084 
Ti       9.37306294       1.87458444       7.50531023 
Ti       4.21242815      -0.02527011       7.49440566 
O       9.77413303      -0.02772548       7.50653803 
O       4.59638702       1.90575963       7.49302692 
O       7.52297920       1.88484712       8.48040714 
O       2.35152285      -0.03218314       8.47379759 
O       6.06552231      -0.02353200       6.75835752 
O       0.89490908       1.88111795       6.74162246 
O       9.76341815       1.87445378       9.59011082 
O       4.59557508      15.25722635       9.56347776 
Ti       2.82435282      -0.02461185      10.46789065 
Ti       7.98782772       1.87573961      10.49297267 
Ti       0.49775164       1.86630787      11.12526927 
Ti       5.68034000      15.24907265      11.10062719 
O       0.92655493      15.25499925      11.09505180 
O       6.07796262       1.89193350      11.07599688 
O       9.06425405       1.86938030      12.02546938 
O       3.90037783       0.01272048      11.99478502 
O       7.58493642      15.25674890      10.52240426 
O       2.41411992       1.88754112      10.51629669 
O       0.95432591       1.88604650      13.13418226 
O       6.13176516      15.27259639      13.09678568 
Ti       4.25605472      -0.00205451      14.05132930 
Ti       9.44928526       1.86746338      14.11262840 
Ti       1.90355944       1.89799554      14.64320110 
Ti       7.05054709      15.25938232      14.62109590 
O       2.42728969      15.28026682      14.85661079 
O       7.58086289       1.87753012      14.86195172 
O       0.29096181       1.88412062      15.53594865 
O       5.42017762      -0.03479065      15.48323465 
O       9.04181642      15.24946397      14.12003891 
O       3.87920462       1.90919723      14.08692751 
O       8.23443773       5.65379806       6.06153888 
O       3.04037409       3.82290819       6.07045682 
Ti       1.41891213       3.76936230       6.95750583 
Ti       6.60258636       5.71259995       6.91282156 
Ti       9.38875827       5.67801102       7.50642954 
Ti       4.21667468       3.80968159       7.49636593 
O       9.78220097       3.79094924       7.50880615 
O       4.61885239       5.80167754       7.46524221 
O       7.50851432       5.78586837       8.45222724 
O       2.36166975       3.75368138       8.46493718 
O       6.06925439       3.82406769       6.75766735 
O       0.90915313       5.70272545       6.74660783 
O       9.76015704       5.68361783       9.57156547 
O       4.59948805       3.82955095       9.57564162 
Ti       2.81751814       3.78414250      10.46938893 
Ti       7.99305924       5.67526465      10.45596083 
Ti       0.47793321       5.65193035      11.13303166 
Ti       5.67424949       3.79848608      11.11879007 
O       0.91361874       3.78168157      11.10464633 
O       6.12834342       5.71335227      11.11765879 
O       9.05942355       5.64162023      12.01371436 
O       3.88469619       3.83745780      12.00882159 
O       7.58150923       3.78954728      10.49997857 
O       2.32643057       5.69229522      10.37042017 
O       0.96368942       5.73727579      13.12160974 
O       6.12350076       3.79370985      13.13052135 
Ti       4.27484218       3.81227865      14.09932534 
Ti       9.42213586       5.67210693      14.07851784 
Ti       1.87382272       5.70001653      14.65857046 
Ti       7.06758201       3.77077751      14.64829489 
O       2.41999291       3.81337118      14.85821304 
O       7.59583582       5.67951930      14.91926242 
O       0.24391307       5.67695050      15.51517806 
O       5.44207748       3.80420493      15.52803629 
O       9.03809711       3.77971393      14.09526461 
O       3.86265925       5.76075136      14.11151310 
O       8.24243622       9.56282901       6.04505084 
O       2.87513333       7.59991933       5.72927226 
Ti       1.36070546       7.60743441       6.86087813 
Ti       6.60697202       9.50183407       6.87082715 
Ti       9.41020242       9.55090364       7.49480086 
Ti       4.20440569       7.61107757       6.94560519 
O       9.82450952       7.61434595       7.49293966 
O       4.61261630       9.43501266       7.37116792 
O       7.49969164       9.40181152       8.42782351 
O       2.60398548       7.62300263       8.25561074 
O       6.08708392       7.60479649       6.39581852 
O       0.90845162       9.52828963       6.72787133 
O       9.77326451       9.54000456       9.56173620 
O       4.18772229       7.63246029      10.95252397 
Ti       2.57833383       7.59545595      10.17376123 
Ti       7.97174182       9.52843471      10.36113277 
Ti       0.51852464       9.55983709      11.13797053 
Ti       5.92078150       7.61700268      11.51934813 
O       0.88849623       7.60801595      11.07444937 
O       6.14911383       9.51853435      11.12554538 
O       9.03856510       9.56422889      11.96512033 
O       7.64057430       7.61201944      10.57570617 
O       2.30633256       9.52724883      10.35401564 
O       0.89828346       9.41580922      13.20398059 
O       5.92615771       7.59297288      13.34636787 
Ti       4.33595671       7.58807539      14.49142090 
Ti       9.31409004       9.48240978      13.83808039 
Ti       1.96540701       9.47016163      14.73704075 
Ti       7.25886311       7.59922123      15.16689906 
O       2.37141886       7.57864267      15.07396927 
O       7.52440301       9.52444334      14.68592903 
O       0.00419257       9.53860501      15.60272027 
O       5.47493138       7.61699000      15.85317799 
O       8.97707418       7.59697084      14.04002432 
O       3.77332768       9.40169737      14.05395448 
O       8.20669304      13.34611410       6.08793220 
O       3.03987496      11.42896369       6.04680300 
Ti       1.42022712      11.46691955       6.91746436 
Ti       6.59602958      13.35742428       6.96152589 
Ti       9.38423428      13.35904141       7.53756888 
Ti       4.23979893      11.43500992       7.47167046 
O       9.78371264      11.43945943       7.50449266 
O       4.60040895      13.32878557       7.48256087 
O       7.52245750      13.37137683       8.47903231 
O       2.36146085      11.47055894       8.43845288 
O       6.08691906      11.41095744       6.75371878 
O       0.89630227      13.35360327       6.74132618 
O       9.77057663      13.34168711       9.61988746 
O       4.61498342      11.36551670       9.54410937 
Ti       2.79453284      11.44582906      10.36977744 
Ti       8.04179287      13.36127783      10.46754500 
Ti       0.53813152      13.35888288      11.26439014 
Ti       5.71769253      11.44075088      11.10112962 
O       0.92792736      11.43684472      11.13185996 
O       6.06301665      13.33217008      11.07581392 
O       9.04551062      13.35259830      12.03839273 
O       3.88055811      11.31013911      11.93068757 
O       7.58653778      11.43669655      10.46873645 
O       2.43060373      13.33359379      10.53746387 
O       0.92006288      13.37539303      13.20790297 
O       6.07485275      11.47004063      13.18799034 
Ti       4.15324598      11.52525867      13.80952200 
Ti       9.49724617      13.36397574      14.06931402 
Ti       1.93650789      13.37575029      14.96542372 
Ti       7.11383752      11.49351069      14.72941431 
O       2.37370482      11.39844575      14.61871807 
O       7.52327055      13.35892534      14.87978231 
O       0.22632721      13.32046315      15.59159760 
O       5.15666638      11.45052032      15.58423688 
O       8.94498815      11.45452756      14.05296909 
O       3.85481411      13.35110280      13.92916825 
V       3.81156494      11.52519223      16.83740143 
O       2.89250033      12.98293968      16.63762322 
O       2.71728232       9.97094709      16.73045506 
O       4.46137341      11.49973760      18.28497162 
V       9.06798195       9.51983020      16.89288365 
O       8.16356507       7.99830986      16.75528806 
O       7.96100598      11.05157926      16.73954838 
O       9.78255072       9.58404419      18.30602459 
H       7.98054344      11.71633433      17.45459643 
H       2.67444833       9.36761392      17.49643703 
VEC1      10.34174630       0.00000000       0.00000000 
VEC2      -0.00000000      15.28938000       0.00000000 
