82

O       9.88932368       1.91117250       9.55168319 
O       4.71845054       0.00000000       9.55168319 
Ti       2.82550372       0.00000000      10.30464003 
Ti       7.99637686       1.91117250      10.30464003 
Ti       0.59325512       1.91117250      11.19256082 
Ti       5.76412826       0.00000000      11.19256082 
O       0.93255691       0.00000000      11.05759686 
O       6.10343004       1.91117250      11.05759686 
O       9.04205458       1.91117250      11.94551766 
O       3.87118144       0.00000000      11.94551766 
O       7.65707507       0.00000000      10.43960399 
O       2.48620193       1.91117250      10.43960399 
O       0.96032926       1.91117250      13.10336638 
O       6.13120240       0.00000000      13.10336638 
Ti       4.23825558       0.00000000      13.85632322 
Ti       9.40912872       1.91117250      13.85632322 
Ti       2.00600698       1.91117250      14.74424401 
Ti       7.17688012       0.00000000      14.74424401 
O       2.34530877       0.00000000      14.60928005 
O       7.51618191       1.91117250      14.60928005 
O       0.11306016       1.91117250      15.49720085 
O       5.28393330       0.00000000      15.49720085 
O       9.06982693       0.00000000      13.99128718 
O       3.89895380       1.91117250      13.99128718 
O       9.88932368       5.73351750       9.55168319 
O       4.71845054       3.82234500       9.55168319 
Ti       2.82550372       3.82234500      10.30464003 
Ti       7.99637686       5.73351750      10.30464003 
Ti       0.59325512       5.73351750      11.19256082 
Ti       5.76412826       3.82234500      11.19256082 
O       0.93255691       3.82234500      11.05759686 
O       6.10343004       5.73351750      11.05759686 
O       9.04205458       5.73351750      11.94551766 
O       3.87118144       3.82234500      11.94551766 
O       7.65707507       3.82234500      10.43960399 
O       2.48620193       5.73351750      10.43960399 
O       0.96032926       5.73351750      13.10336638 
O       6.13120240       3.82234500      13.10336638 
Ti       4.23825558       3.82234500      13.85632322 
Ti       9.40912872       5.73351750      13.85632322 
Ti       2.00600698       5.73351750      14.74424401 
Ti       7.17688012       3.82234500      14.74424401 
O       2.34530877       3.82234500      14.60928005 
O       7.51618191       5.73351750      14.60928005 
O       0.11306016       5.73351750      15.49720085 
O       5.28393330       3.82234500      15.49720085 
O       9.06982693       3.82234500      13.99128718 
O       3.89895380       5.73351750      13.99128718 
O       9.88932368       9.55586250       9.55168319 
O       4.71845054       7.64469000       9.55168319 
Ti       2.82550372       7.64469000      10.30464003 
Ti       7.99637686       9.55586250      10.30464003 
Ti       0.59325512       9.55586250      11.19256082 
Ti       5.76412826       7.64469000      11.19256082 
O       0.93255691       7.64469000      11.05759686 
O       6.10343004       9.55586250      11.05759686 
O       9.04205458       9.55586250      11.94551766 
O       3.87118144       7.64469000      11.94551766 
O       7.65707507       7.64469000      10.43960399 
O       2.48620193       9.55586250      10.43960399 
O       0.96032926       9.55586250      13.10336638 
O       6.13120240       7.64469000      13.10336638 
Ti       4.23825558       7.64469000      13.85632322 
Ti       9.40912872       9.55586250      13.85632322 
Ti       2.00600698       9.55586250      14.74424401 
Ti       7.17688012       7.64469000      14.74424401 
O       2.34530877       7.64469000      14.60928005 
O       7.51618191       9.55586250      14.60928005 
O       0.11306016       9.55586250      15.49720085 
O       5.28393330       7.64469000      15.49720085 
O       9.06982693       7.64469000      13.99128718 
O       3.89895380       9.55586250      13.99128718
V       8.97570597       9.49108583      16.83938035
O       8.06303574       8.01728925      16.67486853
O       7.88236967      11.04718576      16.72185704
O       9.63522657       9.54038434      18.28095700
H       7.87212619      11.67289807      17.47081649
V      14.14663335      11.53486334      16.83917171
O      13.23392824      13.00879524      16.67557636
O      13.05413789       9.97822136      16.72148923
O      14.80639028      11.48411126      18.28062316
H      13.04673452       9.35132625      17.46949365
VEC1    10.34174628      0.00000000       0.00000000 
VEC2    -0.00000000      11.46700000      0.00000000
VEC3    0.00000000e+00   0.00000000e+00   2.34972008e+01 
