113
XYZ-Coordinates for VO3H/TiO2(101) at 0.8 V/nm2
O 8.3847 1.9000 10.0000
O 3.1898 0.0000 10.0000
Ti 1.3898 0.0000 10.7073
Ti 6.5847 1.9000 10.7073
Ti 9.5297 1.9000 11.5915
Ti 4.3347 0.0000 11.5915
O 9.9797 0.0000 11.4147
O 4.7847 1.9000 11.4147
O 7.7297 1.9000 12.2989
O 2.5347 0.0000 12.2989
O 6.1347 0.0000 10.8842
O 0.9398 1.9000 10.8842
O 9.8622 1.8616 13.5797
O 4.6518 -0.0049 13.5570
Ti 2.7838 -0.0033 14.3422
Ti 7.9921 1.8468 14.3411
Ti 0.4327 1.8557 15.1952
Ti 5.6645 -0.0023 15.1153
O 0.9352 -0.0152 15.1128
O 6.1374 1.8833 15.0603
O 9.0582 1.8636 15.9475
O 3.8866 -0.0174 15.9244
O 7.5963 -0.0147 14.4096
O 2.3810 1.8863 14.4245
O 0.8675 1.8296 17.2353
O 6.1085 -0.0090 17.1126
Ti 4.2123 0.0177 18.0365
Ti 9.4796 1.8423 18.1503
Ti 1.8742 1.8456 18.8022
Ti 7.0027 -0.0048 18.6515
O 2.3875 -0.0386 18.9315
O 7.5240 1.8985 18.9204
O 0.1923 1.8694 19.6084
O 5.3782 -0.0041 19.4965
O 9.0113 -0.0040 18.1054
O 3.8065 1.8533 17.9880
O 8.3847 5.7000 10.0000
O 3.1898 3.8000 10.0000
Ti 1.3898 3.8000 10.7073
Ti 6.5847 5.7000 10.7073
Ti 9.5297 5.7000 11.5915
Ti 4.3347 3.8000 11.5915
O 9.9797 3.8000 11.4147
O 4.7847 5.7000 11.4147
O 7.7297 5.7000 12.2989
O 2.5347 3.8000 12.2989
O 6.1347 3.8000 10.8842
O 0.9398 5.7000 10.8842
O 9.8384 5.6911 13.6347
O 4.6433 3.7952 13.5549
Ti 2.7076 3.7875 14.2796
Ti 8.0930 5.6963 14.3602
Ti 0.5026 5.6940 15.3618
Ti 5.7290 3.8335 15.0611
O 0.9236 3.7789 15.1213
O 6.0874 5.6908 15.0714
O 9.0463 5.6901 16.0216
O 3.8602 3.7894 15.9033
O 7.5833 3.8047 14.4190
O 2.3653 5.6890 14.4542
O 0.8635 5.6937 17.2590
O 6.0873 3.7923 17.1450
Ti 4.0804 3.8568 17.7585
Ti 9.5089 5.6997 18.1279
Ti 1.9308 5.7023 19.1116
Ti 7.0756 3.7836 18.6311
O 2.3609 3.7601 18.6638
O 7.5265 5.6665 18.9353
O 0.1944 5.6901 19.6545
O 5.2088 3.8267 19.5838
O 8.9561 3.7822 18.0979
O 3.8078 5.7007 17.9815
O 8.3847 9.5000 10.0000
O 3.1898 7.6000 10.0000
Ti 1.3898 7.6000 10.7073
Ti 6.5847 9.5000 10.7073
Ti 9.5297 9.5000 11.5915
Ti 4.3347 7.6000 11.5915
O 9.9797 7.6000 11.4147
O 4.7847 9.5000 11.4147
O 7.7297 9.5000 12.2989
O 2.5347 7.6000 12.2989
O 6.1347 7.6000 10.8842
O 0.9398 9.5000 10.8842
O 9.8485 9.5088 13.5849
O 4.6409 7.5635 13.5642
Ti 2.7842 7.6030 14.3605
Ti 7.9869 9.4690 14.3736
Ti 0.4470 9.4767 15.1642
Ti 5.6697 7.5691 15.1120
O 0.9207 7.5882 15.1249
O 6.1282 9.4879 15.0609
O 9.0603 9.4895 15.9714
O 3.8805 7.6079 15.9332
O 7.5976 7.5784 14.4394
O 2.3733 9.4888 14.4159
O 0.8965 9.4873 17.1714
O 6.1156 7.5551 17.1108
Ti 4.2101 7.6137 18.0422
Ti 9.4025 9.4711 18.1470
 Ti 1.8322 9.4751 18.6811
 Ti 7.0085 7.5458 18.6498
 O 2.3895 7.5975 18.9418
 O 7.5550 9.4794 18.8705
 O 0.1927 9.4960 19.5597
 O 5.3804 7.5821 19.4893
 O 9.0278 7.5626 18.1242
 O 3.7904 9.4798 18.0194
 V 3.9403 3.8690 20.8994
 O 4.6442 3.8874 22.3256
 O 2.9405 2.2678 20.7910
 O 2.9244 5.2981 20.7065
 H 3.0481 1.6017 21.4824
41
XYZ-Coordinates for VO3H/TiO2(001) at 1.7 V/nm2
Ti 1.8700 1.8777 12.9420
Ti 0.0000 1.9050 10.5954
Ti 1.7298 -0.0137 15.2908
O 0.0000 0.0000 10.0838
O 1.4437 1.8918 14.8298
O -0.0267 1.8938 12.5224
O 1.9485 -0.0246 13.3449
O 1.9050 1.9050 10.9977
O 0.0480 -0.1779 16.0255
Ti 1.9165 5.6888 12.9490
 Ti 0.0000 5.7150 10.5954
 Ti 1.7920 3.7635 15.2970
 O 0.0000 3.8100 10.0838
 O 2.0050 5.6918 14.9574
 O 0.0020 5.7010 12.5596
 O 1.9801 3.7951 13.3593
 O 1.9050 5.7150 10.9977
 O 0.0404 3.9646 15.9645
 Ti 5.6920 1.8661 13.0703
 Ti 3.8100 1.9050 10.5954
 Ti 5.9313 0.0036 15.6751
 O 3.8100 0.0000 10.0838
 O 5.6908 1.9098 15.0310
 O 3.8288 1.8911 12.5730
 O 5.7618 -0.0388 13.5282
 O 5.7150 1.9050 10.9977
 O 3.1475 0.4714 16.2517
 Ti 5.6974 5.7375 12.9966
 Ti 3.8100 5.7150 10.5954
 Ti 5.9410 3.8996 15.5387
 O 3.8100 3.8100 10.0838
 O 5.4961 5.7364 15.2634
 O 3.8286 5.7106 12.5335
 O 5.7765 3.8668 13.5521
 O 5.7150 5.7150 10.9977
 O 3.2714 3.2738 16.1955
 V 4.0198 1.8241 17.2781
 O -2.1998 0.5962 17.3505
 O 10.8847 1.8372 18.7441
 O 5.4353 3.3261 17.4048
 H 6.2035 3.0655 17.9415
