201
al12 o18
Al    0.000000    0.000000    1.939946
Al   -2.402514    4.161275    1.939946
Al   -4.805027    8.322551    1.939946
Al   -7.207541   12.483826    1.939946
Al    4.805027    0.000000    1.939946
Al    2.402514    4.161275    1.939946
Al    0.000000    8.322551    1.939946
Al   -2.402514   12.483826    1.939946
Al    9.610054    0.000000    1.939946
Al    7.207541    4.161275    1.939946
Al    4.805027    8.322551    1.939946
Al    2.402514   12.483826    1.939946
Al   14.415081    0.000000    1.939946
Al   12.012568    4.161275    1.939946
Al    9.610054    8.322551    1.939946
Al    7.207541   12.483826    1.939946
Al    2.402514    1.387092    2.432138
Al    0.000000    5.548368    2.432138
Al   -2.402513    9.709642    2.432138
Al    7.207541    1.387092    2.432138
Al    4.805027    5.548368    2.432138
Al    2.402514    9.709642    2.432138
Al   12.012568    1.387092    2.432138
Al    9.610054    5.548368    2.432138
Al    7.207541    9.709642    2.432138
Al    0.000000    2.774184    0.246096
Al   -2.402514    6.935459    0.246096
Al   -4.805027   11.096735    0.246096
Al    4.805027    2.774184    0.246096
Al    2.402514    6.935459    0.246096
Al    0.000000   11.096735    0.246096
Al    9.610054    2.774184    0.246096
Al    7.207541    6.935459    0.246096
Al    4.805027   11.096735    0.246096
Al    0.000000    2.774184    4.125989
Al   -2.402514    6.935459    4.125989
Al   -4.805027   11.096735    4.125989
Al    4.805027    2.774184    4.125989
Al    2.402514    6.935459    4.125989
Al    0.000000   11.096735    4.125989
Al    9.610054    2.774184    4.125989
Al    7.207541    6.935459    4.125989
Al    4.805027   11.096735    4.125989
 O   -1.666993    2.887317    3.279063
 O   -4.069507    7.048593    3.279063
 O   -6.472021   11.209868    3.279063
 O    3.138033    2.887317    3.279063
 O    0.735520    7.048593    3.279063
 O   -1.666993   11.209868    3.279063
 O    7.943060    2.887317    3.279063
 O    5.540547    7.048593    3.279063
 O    3.138033   11.209868    3.279063
 O   12.748088    2.887317    3.279063
 O   10.345574    7.048593    3.279063
 O    7.943060   11.209868    3.279063
 O    0.735520    1.273958    3.279063
 O   -1.666994    5.435233    3.279063
 O   -4.069507    9.596509    3.279063
 O    5.540547    1.273958    3.279063
 O    3.138033    5.435233    3.279063
 O    0.735520    9.596509    3.279063
 O   10.345573    1.273958    3.279063
 O    7.943060    5.435233    3.279063
 O    5.540547    9.596509    3.279063
 O    3.333987    0.000000    3.279063
 O    0.931473    4.161275    3.279063
 O   -1.471040    8.322551    3.279063
 O   -3.873554   12.483826    3.279063
 O    8.139014    0.000000    3.279063
 O    5.736501    4.161275    3.279063
 O    3.333987    8.322551    3.279063
 O    0.931473   12.483826    3.279063
 O   12.944041    0.000000    3.279063
 O   10.541528    4.161275    3.279063
 O    8.139014    8.322551    3.279063
 O    5.736501   12.483826    3.279063
 O    1.666994    2.661050    1.093022
 O   -0.735520    6.822325    1.093022
 O   -3.138033   10.983601    1.093022
 O    6.472021    2.661050    1.093022
 O    4.069507    6.822325    1.093022
 O    1.666994   10.983601    1.093022
 O   11.277048    2.661050    1.093022
 O    8.874535    6.822325    1.093022
 O    6.472021   10.983601    1.093022
 O    1.666994    0.113134    1.093022
 O   -0.735520    4.274409    1.093022
 O   -3.138033    8.435685    1.093022
 O    6.472021    0.113134    1.093022
 O    4.069507    4.274409    1.093022
 O    1.666994    8.435685    1.093022
 O   11.277048    0.113134    1.093022
 O    8.874535    4.274409    1.093022
 O    6.472021    8.435685    1.093022
 O    3.873554    1.387092    1.093022
 O    1.471040    5.548368    1.093022
 O   -0.931473    9.709642    1.093022
 O    8.678580    1.387092    1.093022
 O    6.276067    5.548368    1.093022
 O    3.873554    9.709642    1.093022
 O   13.483607    1.387092    1.093022
 O   11.081094    5.548368    1.093022
 O    8.678580    9.709642    1.093022
 O   -0.735520   -1.500226    1.093022
 O   -1.471040    0.000000    3.279063
 O   -0.931473    1.387092    1.093022
 O    0.735520   -1.273958    3.279063
 O   -3.138033    2.661050    1.093022
 O   -3.873554    4.161275    3.279063
 O   -3.333987    5.548368    1.093022
 O   -5.540547    6.822325    1.093022
 O   -5.736501    9.709642    1.093022
 O   -6.276067    8.322551    3.279063
 O   -7.943060   10.983601    1.093022
 O   -8.139014   13.870917    1.093022
 O   -8.678580   12.483826    3.279063
 O   -6.472021   13.757784    3.279063
 O   -5.540547   12.596960    1.093022
 O    4.069507   -1.500226    1.093022
 O    5.540547   -1.273958    3.279063
 O   -3.333987   13.870917    1.093022
 O   -1.666994   13.757784    3.279063
 O   -0.735520   12.596960    1.093022
 O    8.874535   -1.500226    1.093022
 O   10.345574   -1.273958    3.279063
 O    1.471040   13.870917    1.093022
 O    3.138033   13.757784    3.279063
 O    4.069507   12.596960    1.093022
 O   13.679562   -1.500226    1.093022
 O   15.150601   -1.273958    3.279063
 O   15.150600    1.273958    3.279063
 O   16.082075    0.113134    1.093022
 O   12.748087    5.435233    3.279063
 O   13.679562    4.274409    1.093022
 O   10.345573    9.596509    3.279063
 O   11.277048    8.435685    1.093022
 O    6.276067   13.870917    1.093022
 O    7.943060   13.757784    3.279063
 O    8.874535   12.596960    1.093022
 O   -1.471040    2.774184   -1.093020
 O    0.735520    1.500226   -1.093020
 O    0.735520    4.048141   -1.093020
 O   -3.873553    6.935459   -1.093020
 O   -1.666994    5.661501   -1.093020
 O   -1.666993    8.209417   -1.093020
 O   -6.276067   11.096735   -1.093020
 O   -4.069507    9.822777   -1.093020
 O   -4.069507   12.370692   -1.093020
 O    3.333987    2.774184   -1.093020
 O    5.540547    1.500226   -1.093020
 O    5.540547    4.048141   -1.093020
 O    0.931474    6.935459   -1.093020
 O    3.138033    5.661501   -1.093020
 O    3.138033    8.209417   -1.093020
 O   -1.471040   11.096735   -1.093020
 O    0.735520    9.822777   -1.093020
 O    0.735520   12.370692   -1.093020
 O   10.345574    1.500226   -1.093020
 O    8.139014    2.774184   -1.093020
 O   10.345574    4.048141   -1.093020
 O    7.943060    5.661501   -1.093020
 O    5.736501    6.935459   -1.093020
 O    7.943060    8.209417   -1.093020
 O    5.540547    9.822777   -1.093020
 O    3.333987   11.096735   -1.093020
 O    5.540547   12.370692   -1.093020
 O   -0.735520    1.500226    5.465106
 O   -0.735520    4.048141    5.465106
 O    1.471040    2.774184    5.465106
 O   -3.138033    5.661501    5.465106
 O   -3.138033    8.209417    5.465106
 O   -0.931474    6.935459    5.465106
 O   -5.540547    9.822777    5.465106
 O   -5.540547   12.370692    5.465106
 O   -3.333987   11.096735    5.465106
 O    4.069507    1.500226    5.465106
 O    4.069507    4.048141    5.465106
 O    6.276067    2.774184    5.465106
 O    1.666994    5.661501    5.465106
 O    1.666994    8.209417    5.465106
 O    3.873553    6.935459    5.465106
 O   -0.735520    9.822777    5.465106
 O   -0.735520   12.370692    5.465106
 O    1.471040   11.096735    5.465106
 O    8.874535    1.500226    5.465106
 O    8.874535    4.048141    5.465106
 O   11.081094    2.774184    5.465106
 O    6.472021    5.661501    5.465106
 O    6.472021    8.209417    5.465106
 O    8.678580    6.935459    5.465106
 O    4.069507    9.822777    5.465106
 O    4.069507   12.370692    5.465106
 O    6.276067   11.096735    5.465106
Al    2.402514    4.161275    4.618180
Al    0.000000    8.322551    4.618180
Al    7.207541    4.161275    4.618180
Al    4.805027    8.322551    4.618180
Al    0.000000    5.548368   -0.246096
Al   -2.402513    9.709642   -0.246096
Al    4.805027    5.548368   -0.246096
Al    2.402514    9.709642   -0.246096
